build/lib/powerfulcases/cases/ieee39_rt/ieee39_rt.raw
0, 100, 33, 0, 0, 60  / 09-Nov-2025 19:24:39 - MATPOWER 8.0


     1, 'B1          ',         1, 1,    1,    1, 1,     1.03147,      -9.814,  1.1,  0.9,  1.1,  0.9
     2, 'B2          ',         1, 1,    1,    1, 1,     1.00571,     -7.7389,  1.1,  0.9,  1.1,  0.9
     3, 'B3          ',         1, 1,    1,    1, 1,     0.95958,         -11,  1.1,  0.9,  1.1,  0.9
     4, 'B4          ',         1, 1,    1,    1, 1,     0.89837,     -11.762,  1.1,  0.9,  1.1,  0.9
     5, 'B5          ',         1, 1,    1,    1, 1,      0.8803,     -8.6913,  1.1,  0.9,  1.1,  0.9
     6, 'B6          ',         1, 1,    1,    1, 1,     0.87981,     -7.4625,  1.1,  0.9,  1.1,  0.9
     7, 'B7          ',         1, 1,    1,    1, 1,     0.82348,    -10.3525,  1.1,  0.9,  1.1,  0.9
     8, 'B8          ',         1, 1,    1,    1, 1,     0.84314,    -11.2089,  1.1,  0.9,  1.1,  0.9
     9, 'B9          ',         1, 1,    1,    1, 1,     0.96516,    -11.1464,  1.1,  0.9,  1.1,  0.9
    10, 'B10         ',         1, 1,    1,    1, 1,     0.88462,     -6.0799,  1.1,  0.9,  1.1,  0.9
    11, 'B11         ',         1, 1,    1,    1, 1,     0.87862,     -4.3763,  1.1,  0.9,  1.1,  0.9
    12, 'B12         ',         1, 1,    1,    1, 1,     0.81048,    -21.9178,  1.1,  0.9,  1.1,  0.9
    13, 'B13         ',         1, 1,    1,    1, 1,     0.87079,     -9.7632,  1.1,  0.9,  1.1,  0.9
    14, 'B14         ',         1, 1,    1,    1, 1,     0.89233,     -10.724,  1.1,  0.9,  1.1,  0.9
    15, 'B15         ',         1, 1,    1,    1, 1,     0.92313,    -10.9048,  1.1,  0.9,  1.1,  0.9
    16, 'B16         ',         1, 1,    1,    1, 1,     0.95332,     -9.1059,  1.1,  0.9,  1.1,  0.9
    17, 'B17         ',         1, 1,    1,    1, 1,     0.96032,    -10.0922,  1.1,  0.9,  1.1,  0.9
    18, 'B18         ',         1, 1,    1,    1, 1,     0.95864,    -10.9341,  1.1,  0.9,  1.1,  0.9
    19, 'B19         ',         1, 1,    1,    1, 1,     0.99903,     -3.9841,  1.1,  0.9,  1.1,  0.9
    20, 'B20         ',         1, 1,    1,    1, 1,     0.99204,     -5.3595,  1.1,  0.9,  1.1,  0.9
    21, 'B21         ',         1, 1,    1,    1, 1,     0.97066,     -6.4131,  1.1,  0.9,  1.1,  0.9
    22, 'B22         ',         1, 1,    1,    1, 1,     1.00861,     -1.5644,  1.1,  0.9,  1.1,  0.9
    23, 'B23         ',         1, 1,    1,    1, 1,     1.00673,     -1.7962,  1.1,  0.9,  1.1,  0.9
    24, 'B24         ',         1, 1,    1,    1, 1,     0.96471,     -8.9822,  1.1,  0.9,  1.1,  0.9
    25, 'B25         ',         1, 1,    1,    1, 1,     1.01583,     -6.3974,  1.1,  0.9,  1.1,  0.9
    26, 'B26         ',         1, 1,    1,    1, 1,     0.99582,      -7.888,  1.1,  0.9,  1.1,  0.9
    27, 'B27         ',         1, 1,    1,    1, 1,      0.9729,    -10.1946,  1.1,  0.9,  1.1,  0.9
    28, 'B28         ',         1, 1,    1,    1, 1,     0.99966,     -4.0244,  1.1,  0.9,  1.1,  0.9
    29, 'B29         ',         1, 1,    1,    1, 1,     1.00233,     -1.0034,  1.1,  0.9,  1.1,  0.9
    30, 'M1          ',         1, 2,    1,    1, 1,      1.0475,     -5.2771,  1.1,  0.9,  1.1,  0.9
    31, 'M2          ',         1, 2,    1,    1, 1,        1.04,      1.3977,  1.1,  0.9,  1.1,  0.9
    32, 'M3          ',         1, 2,    1,    1, 1,      0.9831,       2.517,  1.1,  0.9,  1.1,  0.9
    33, 'M4          ',         1, 2,    1,    1, 1,      0.9972,    -28.6918,  1.1,  0.9,  1.1,  0.9
    34, 'M5          ',         1, 2,    1,    1, 1,      1.0123,     -0.1927,  1.1,  0.9,  1.1,  0.9
    35, 'M6          ',         1, 2,    1,    1, 1,      1.0493,      3.4742,  1.1,  0.9,  1.1,  0.9
    36, 'M7          ',         1, 2,    1,    1, 1,      1.0635,      6.3151,  1.1,  0.9,  1.1,  0.9
    37, 'M8          ',         1, 2,    1,    1, 1,      1.0278,      0.4706,  1.1,  0.9,  1.1,  0.9
    38, 'M9          ',         1, 2,    1,    1, 1,      1.0265,      6.1508,  1.1,  0.9,  1.1,  0.9
    39, 'M10         ',         1, 3,    1,    1, 1,        1.03,      -10.96,  1.1,  0.9,  1.1,  0.9
   101, 'STR_PT_XF_1 ',         1, 1,    1,    1, 1,     0.82628,    -21.8525,  1.1,  0.9,  1.1,  0.9
0 / END OF BUS DATA, BEGIN LOAD DATA
     3,  1, 1,    1,    1,       322,       2.4, 0, 0, 0, 0, 1, 1, 0
     4,  1, 1,    1,    1,       500,         0, 0, 0, 0, 0, 1, 1, 0
     7,  1, 1,    1,    1,     233.8,       840, 0, 0, 0, 0, 1, 1, 0
     8,  1, 1,    1,    1,       522,       176, 0, 0, 0, 0, 1, 1, 0
    12,  1, 1,    1,    1,       8.5,        88, 0, 0, 0, 0, 1, 1, 0
    15,  1, 1,    1,    1,       320,       153, 0, 0, 0, 0, 1, 1, 0
    16,  1, 1,    1,    1,     329.4,         0, 0, 0, 0, 0, 1, 1, 0
    18,  1, 1,    1,    1,       158,         0, 0, 0, 0, 0, 1, 1, 0
    20,  1, 1,    1,    1,       680,       103, 0, 0, 0, 0, 1, 1, 0
    21,  1, 1,    1,    1,       274,       115, 0, 0, 0, 0, 1, 1, 0
    23,  1, 1,    1,    1,     247.5,      84.6, 0, 0, 0, 0, 1, 1, 0
    24,  1, 1,    1,    1,     308.6,     -92.2, 0, 0, 0, 0, 1, 1, 0
    25,  1, 1,    1,    1,       224,      47.2, 0, 0, 0, 0, 1, 1, 0
    26,  1, 1,    1,    1,       139,        17, 0, 0, 0, 0, 1, 1, 0
    27,  1, 1,    1,    1,       281,      75.5, 0, 0, 0, 0, 1, 1, 0
    28,  1, 1,    1,    1,       206,      27.6, 0, 0, 0, 0, 1, 1, 0
    29,  1, 1,    1,    1,     283.5,     126.9, 0, 0, 0, 0, 1, 1, 0
    31,  1, 1,    1,    1,       9.2,       4.6, 0, 0, 0, 0, 1, 1, 0
    39,  1, 1,    1,    1,      1104,       250, 0, 0, 0, 0, 1, 1, 0
0 / END OF LOAD DATA, BEGIN FIXED SHUNT DATA
     4, 1, 1,       0,     -84
    16, 1, 1,       0,    -323
    18, 1, 1,       0,     -30
0 / END OF FIXED SHUNT DATA, BEGIN GENERATOR DATA
    30,  1,       250,   247.206,       800,      -500,   1.0475, 0,    1000, 0, 1, 0, 0, 1, 1, 100,    9999.9,         0, 1, 1, 0, 1, 0, 1, 0, 1, 0, 1
    31,  1,    572.93,   714.661,       800,      -500,     1.04, 0,    1000, 0, 1, 0, 0, 1, 1, 100,    9999.9,         0, 1, 1, 0, 1, 0, 1, 0, 1, 0, 1
    32,  1,       650,   532.929,       800,      -500,   0.9831, 0,    1000, 0, 1, 0, 0, 1, 1, 100,    9999.9,         0, 1, 1, 0, 1, 0, 1, 0, 1, 0, 1
    33,  1,       632,   318.581,       800,      -500,   0.9972, 0,    1000, 0, 1, 0, 0, 1, 1, 100,    9999.9,         0, 1, 1, 0, 1, 0, 1, 0, 1, 0, 1
    34,  1,       508,   111.202,       800,      -300,   1.0123, 0,    1000, 0, 1, 0, 0, 1, 1, 100,    9999.9,         0, 1, 1, 0, 1, 0, 1, 0, 1, 0, 1
    35,  1,       650,   327.199,       800,      -500,   1.0493, 0,    1000, 0, 1, 0, 0, 1, 1, 100,    9999.9,         0, 1, 1, 0, 1, 0, 1, 0, 1, 0, 1
    36,  1,       560,    251.05,       800,      -500,   1.0635, 0,    1000, 0, 1, 0, 0, 1, 1, 100,    9999.9,         0, 1, 1, 0, 1, 0, 1, 0, 1, 0, 1
    37,  1,       540,    71.373,       800,      -500,   1.0278, 0,    1000, 0, 1, 0, 0, 1, 1, 100,    9999.9,         0, 1, 1, 0, 1, 0, 1, 0, 1, 0, 1
    38,  1,       830,   167.856,      1000,      -500,   1.0265, 0,    1000, 0, 1, 0, 0, 1, 1, 100,    9999.9,         0, 1, 1, 0, 1, 0, 1, 0, 1, 0, 1
    39,  1,  1042.519,   410.956,      1500,     -1000,     1.03, 0,    1000, 0, 1, 0, 0, 1, 1, 100,    9999.9,         0, 1, 1, 0, 1, 0, 1, 0, 1, 0, 1
0 / END OF GENERATOR DATA, BEGIN BRANCH DATA
     1,      2, 1,   0.0035,   0.0411,   0.6987,       0,       0,       1, 0, 0, 0, 0, 1, 1, 0, 1, 1, 0, 1, 0, 1, 0, 1
     1,     39, 1,    0.001,    0.025,     0.75,       0,       0,       1, 0, 0, 0, 0, 1, 1, 0, 1, 1, 0, 1, 0, 1, 0, 1
     2,      3, 1,   0.0013,   0.0151,   0.2572,       0,       0,       1, 0, 0, 0, 0, 1, 1, 0, 1, 1, 0, 1, 0, 1, 0, 1
     2,     25, 1,    0.007,   0.0086,    0.146,       0,       0,       1, 0, 0, 0, 0, 1, 1, 0, 1, 1, 0, 1, 0, 1, 0, 1
     3,      4, 1,   0.0013,   0.0213,   0.2214,       0,       0,       1, 0, 0, 0, 0, 1, 1, 0, 1, 1, 0, 1, 0, 1, 0, 1
     3,     18, 1,   0.0011,   0.0133,   0.2138,       0,       0,       1, 0, 0, 0, 0, 1, 1, 0, 1, 1, 0, 1, 0, 1, 0, 1
     4,      5, 1,   0.0008,   0.0128,   0.1342,       0,       0,       1, 0, 0, 0, 0, 1, 1, 0, 1, 1, 0, 1, 0, 1, 0, 1
     4,     14, 1,   0.0008,   0.0129,   0.1382,       0,       0,       1, 0, 0, 0, 0, 1, 1, 0, 1, 1, 0, 1, 0, 1, 0, 1
     5,      6, 1,   0.0002,   0.0026,   0.0434,       0,       0,       1, 0, 0, 0, 0, 1, 1, 0, 1, 1, 0, 1, 0, 1, 0, 1
     5,      8, 1,   0.0008,   0.0112,   0.1476,       0,       0,       1, 0, 0, 0, 0, 1, 1, 0, 1, 1, 0, 1, 0, 1, 0, 1
     6,      7, 1,   0.0006,   0.0092,    0.113,       0,       0,       1, 0, 0, 0, 0, 1, 1, 0, 1, 1, 0, 1, 0, 1, 0, 1
     6,     11, 1,   0.0007,   0.0082,   0.1389,       0,       0,       1, 0, 0, 0, 0, 1, 1, 0, 1, 1, 0, 1, 0, 1, 0, 1
     7,      8, 1,   0.0004,   0.0046,    0.078,       0,       0,       1, 0, 0, 0, 0, 1, 1, 0, 1, 1, 0, 1, 0, 1, 0, 1
     8,      9, 1,   0.0023,   0.0363,   0.3804,       0,       0,       1, 0, 0, 0, 0, 1, 1, 0, 1, 1, 0, 1, 0, 1, 0, 1
     9,     39, 1,    0.001,    0.025,      1.2,       0,       0,       1, 0, 0, 0, 0, 1, 1, 0, 1, 1, 0, 1, 0, 1, 0, 1
    10,     11, 1,   0.0004,   0.0043,   0.0729,       0,       0,       1, 0, 0, 0, 0, 1, 1, 0, 1, 1, 0, 1, 0, 1, 0, 1
    10,     13, 1,   0.0004,   0.0043,   0.0729,       0,       0,       1, 0, 0, 0, 0, 1, 1, 0, 1, 1, 0, 1, 0, 1, 0, 1
    13,     14, 1,   0.0009,   0.0101,   0.1723,       0,       0,       1, 0, 0, 0, 0, 1, 1, 0, 1, 1, 0, 1, 0, 1, 0, 1
    14,     15, 1,   0.0018,   0.0217,    0.366,       0,       0,       1, 0, 0, 0, 0, 1, 1, 0, 1, 1, 0, 1, 0, 1, 0, 1
    15,     16, 1,   0.0009,   0.0094,    0.171,       0,       0,       1, 0, 0, 0, 0, 1, 1, 0, 1, 1, 0, 1, 0, 1, 0, 1
    16,     17, 1,   0.0007,   0.0089,   0.1342,       0,       0,       1, 0, 0, 0, 0, 1, 1, 0, 1, 1, 0, 1, 0, 1, 0, 1
    16,     19, 1,   0.0016,   0.0195,    0.304,       0,       0,       1, 0, 0, 0, 0, 1, 1, 0, 1, 1, 0, 1, 0, 1, 0, 1
    16,     21, 1,   0.0008,   0.0135,   0.2548,       0,       0,       1, 0, 0, 0, 0, 1, 1, 0, 1, 1, 0, 1, 0, 1, 0, 1
    16,     24, 1,   0.0003,   0.0059,    0.068,       0,       0,       1, 0, 0, 0, 0, 1, 1, 0, 1, 1, 0, 1, 0, 1, 0, 1
    17,     18, 1,   0.0007,   0.0082,   0.1319,       0,       0,       1, 0, 0, 0, 0, 1, 1, 0, 1, 1, 0, 1, 0, 1, 0, 1
    17,     27, 1,   0.0013,   0.0173,   0.3216,       0,       0,       1, 0, 0, 0, 0, 1, 1, 0, 1, 1, 0, 1, 0, 1, 0, 1
    21,     22, 1,   0.0008,    0.014,   0.2565,       0,       0,       1, 0, 0, 0, 0, 1, 1, 0, 1, 1, 0, 1, 0, 1, 0, 1
    22,     23, 1,   0.0006,   0.0096,   0.1846,       0,       0,       1, 0, 0, 0, 0, 1, 1, 0, 1, 1, 0, 1, 0, 1, 0, 1
    23,     24, 1,   0.0022,    0.035,    0.361,       0,       0,       1, 0, 0, 0, 0, 1, 1, 0, 1, 1, 0, 1, 0, 1, 0, 1
    25,     26, 1,   0.0032,   0.0323,    0.513,       0,       0,       1, 0, 0, 0, 0, 1, 1, 0, 1, 1, 0, 1, 0, 1, 0, 1
    26,     27, 1,   0.0014,   0.0147,   0.2396,       0,       0,       1, 0, 0, 0, 0, 1, 1, 0, 1, 1, 0, 1, 0, 1, 0, 1
    26,     28, 1,   0.0043,   0.0474,   0.7802,       0,       0,       1, 0, 0, 0, 0, 1, 1, 0, 1, 1, 0, 1, 0, 1, 0, 1
    26,     29, 1,   0.0057,   0.0625,    1.029,       0,       0,       1, 0, 0, 0, 0, 1, 1, 0, 1, 1, 0, 1, 0, 1, 0, 1
    28,     29, 1,   0.0014,   0.0151,    0.249,       0,       0,       1, 0, 0, 0, 0, 1, 1, 0, 1, 1, 0, 1, 0, 1, 0, 1
0 / END OF BRANCH DATA, BEGIN TRANSFORMER DATA
     2,     30, 0, 1, 1, 1, 1, 0, 0, 2, '            ', 1, 1, 1, 0, 1, 0, 1, 0, 1, '            '
0, 0.0181, 100
    1, 0,     0,       0,       0,       0, 0, 0, 1.1, 0.9, 1.1, 0.9, 33, 0, 0, 0, 0
    1, 0
     6,     31, 0, 1, 1, 1, 1, 0, 0, 2, '            ', 1, 1, 1, 0, 1, 0, 1, 0, 1, '            '
0, 0.025, 100
    1, 0,     0,       0,       0,       0, 0, 0, 1.1, 0.9, 1.1, 0.9, 33, 0, 0, 0, 0
    1, 0
    10,     32, 0, 1, 1, 1, 1, 0, 0, 2, '            ', 1, 1, 1, 0, 1, 0, 1, 0, 1, '            '
0, 0.02, 100
    1, 0,     0,       0,       0,       0, 0, 0, 1.1, 0.9, 1.1, 0.9, 33, 0, 0, 0, 0
    1, 0
    19,     20, 0, 1, 1, 1, 1, 0, 0, 2, '            ', 1, 1, 1, 0, 1, 0, 1, 0, 1, '            '
0.0007, 0.0138, 100
    1, 0,     0,       0,       0,       0, 0, 0, 1.1, 0.9, 1.1, 0.9, 33, 0, 0, 0, 0
    1, 0
    19,     33, 0, 1, 1, 1, 1, 0, 0, 2, '            ', 1, 1, 1, 0, 1, 0, 1, 0, 1, '            '
0.0007, 0.0142, 100
 1.05, 0,    30,       0,       0,       0, 0, 0, 1.1, 0.9, 1.1, 0.9, 33, 0, 0, 0, 0
    1, 0
    20,     34, 0, 1, 1, 1, 1, 0, 0, 2, '            ', 1, 1, 1, 0, 1, 0, 1, 0, 1, '            '
0.0009, 0.018, 100
    1, 0,     0,       0,       0,       0, 0, 0, 1.1, 0.9, 1.1, 0.9, 33, 0, 0, 0, 0
    1, 0
    22,     35, 0, 1, 1, 1, 1, 0, 0, 2, '            ', 1, 1, 1, 0, 1, 0, 1, 0, 1, '            '
0, 0.0143, 100
    1, 0,     0,       0,       0,       0, 0, 0, 1.1, 0.9, 1.1, 0.9, 33, 0, 0, 0, 0
    1, 0
    23,     36, 0, 1, 1, 1, 1, 0, 0, 2, '            ', 1, 1, 1, 0, 1, 0, 1, 0, 1, '            '
0.0005, 0.0272, 100
    1, 0,     0,       0,       0,       0, 0, 0, 1.1, 0.9, 1.1, 0.9, 33, 0, 0, 0, 0
    1, 0
    25,     37, 0, 1, 1, 1, 1, 0, 0, 2, '            ', 1, 1, 1, 0, 1, 0, 1, 0, 1, '            '
0.0006, 0.0232, 100
    1, 0,     0,       0,       0,       0, 0, 0, 1.1, 0.9, 1.1, 0.9, 33, 0, 0, 0, 0
    1, 0
    29,     38, 0, 1, 1, 1, 1, 0, 0, 2, '            ', 1, 1, 1, 0, 1, 0, 1, 0, 1, '            '
0.0008, 0.0156, 100
    1, 0,     0,       0,       0,       0, 0, 0, 1.1, 0.9, 1.1, 0.9, 33, 0, 0, 0, 0
    1, 0
    11,    101, 0, 1, 1, 1, 1, 0, 0, 2, '            ', 1, 1, 1, 0, 1, 0, 1, 0, 1, '            '
0.000533335, 0.0145, 100
 1.05, 0,    30,       0,       0,       0, 0, 0, 1.1, 0.9, 1.1, 0.9, 33, 0, 0, 0, 0
    1, 0
    12,    101, 0, 1, 1, 1, 1, 0, 0, 2, '            ', 1, 1, 1, 0, 1, 0, 1, 0, 1, '            '
0.000533335, 0.0145, 100
    1, 0,     0,       0,       0,       0, 0, 0, 1.1, 0.9, 1.1, 0.9, 33, 0, 0, 0, 0
    1, 0
    13,    101, 0, 1, 1, 1, 1, 0, 0, 2, '            ', 1, 1, 1, 0, 1, 0, 1, 0, 1, '            '
0.000533335, 0.0145, 100
    1, 0,     0,       0,       0,       0, 0, 0, 1.1, 0.9, 1.1, 0.9, 33, 0, 0, 0, 0
    1, 0
0 / END OF TRANSFORMER DATA, BEGIN AREA DATA
0 / END OF AREA DATA, BEGIN TWO-TERMINAL DC DATA
0 / END OF TWO-TERMINAL DC DATA, BEGIN VOLTAGE SOURCE CONVERTER DATA
0 / END OF VOLTAGE SOURCE CONVERTER DATA, BEGIN IMPEDANCE CORRECTION DATA
0 / END OF IMPEDANCE CORRECTION DATA, BEGIN MULTI-TERMINAL DC DATA
0 / END OF MULTI-TERMINAL DC DATA, BEGIN MULTI-SECTION LINE DATA
0 / END OF MULTI-SECTION LINE DATA, BEGIN ZONE DATA
0 / END OF ZONE DATA, BEGIN INTER-AREA TRANSFER DATA
0 / END OF INTER-AREA TRANSFER DATA, BEGIN OWNER DATA
0 / END OF OWNER DATA, BEGIN FACTS CONTROL DEVICE DATA
0 / END OF FACTS CONTROL DEVICE DATA, BEGIN SWITCHED SHUNT DATA
0 / END OF SWITCHED SHUNT DATA, BEGIN GNE DEVICE DATA
0 / END OF GNE DEVICE DATA, BEGIN INDUCTION MACHINE DATA
0 / END OF INDUCTION MACHINE DATA
Q
